[TITLE]

[JUNCTIONS]
 2                                    46.0000
 3                                    33.0000
 4                                    26.0000
 5                                    19.0000
 6                                    14.0000
 7                                    10.0000
 8                                     0.0000
 9                                     4.0000
 10                                    0.0000
 11                                    0.0000
 12                                   10.0000
 13                                   19.0000
 14                                   26.0000
 15                                   33.0000
 16                                   10.0000
 17                                   19.0000
 18                                    0.0000
 19                                    0.0000

[RESERVOIRS]
 1                                    60.0000 

[TANKS]

[PIPES]
 1                               1                               2                                   190.0000     210.0000       0.5000       0.0000 
 2                               2                               3                                   180.0000     170.0000       0.5000       0.0000 
 3                               3                               4                                   155.0000     130.0000       0.5000       0.0000 
 4                               4                               5                                   140.0000     130.0000       0.5000       0.0000 
 5                               5                               6                                   120.0000     100.0000       0.5000       0.0000 
 6                               6                               7                                   130.0000     100.0000       0.5000       0.0000 
 7                               7                               8                                   250.0000      70.0000       0.5000       0.0000 
 8                               8                               9                                   135.0000      60.0000       0.5000       0.0000 
 9                               8                               10                                  150.0000      60.0000       0.5000       0.0000 
 10                              10                              11                                  150.0000      60.0000       0.5000       0.0000 
 11                              11                              12                                  250.0000      70.0000       0.5000       0.0000 
 12                              12                              13                                  250.0000     100.0000       0.5000       0.0000 
 13                              13                              14                                  140.0000     120.0000       0.5000       0.0000 
 14                              14                              15                                  140.0000     110.0000       0.5000       0.0000 
 15                              3                               15                                  245.0000     120.0000       0.5000       0.0000 
 16                              4                               14                                  300.0000      70.0000       0.5000       0.0000 
 17                              13                              17                                  150.0000      60.0000       0.5000       0.0000 
 18                              5                               17                                  150.0000      90.0000       0.5000       0.0000 
 19                              10                              16                                  250.0000      60.0000       0.5000       0.0000 
 20                              16                              17                                  250.0000      80.0000       0.5000       0.0000 
 21                              12                              16                                  150.0000      60.0000       0.5000       0.0000 
 22                              7                               16                                  150.0000      60.0000       0.5000       0.0000 
 23                              11                              18                                  200.0000      70.0000       0.5000       0.0000 
 24                              18                              19                                  140.0000      70.0000       0.5000       0.0000 

[PUMPS]

[VALVES]

[DEMANDS]
 2                                     0.170000 
 3                                     0.760000 
 4                                     0.820000 
 5                                     0.760000 
 6                                     0.460000 
 7                                     2.160000 
 8                                     1.640000 
 9                                     0.900000 
 10                                    3.280000 
 11                                    4.350000 
 12                                    5.330000 
 13                                    3.060000 
 14                                    1.070000 
 15                                    3.840000 
 16                                    5.660000 
 17                                    2.650000 
 18                                    2.870000 
 19                                    1.180000 

[EMITTERS]

[STATUS]

[PATTERNS]

[CURVES]

[CONTROLS]

[QUALITY]

[SOURCES]

[MIXING]

[REACTIONS]
 ORDER  BULK            1.00
 ORDER  WALL            1
 ORDER  TANK            1.00
 GLOBAL BULK            0.000000
 GLOBAL WALL            0.000000

[ENERGY]
 GLOBAL EFFIC        75.0000
 DEMAND CHARGE       0.0000

[TIMES]
 DURATION            0:00:00
 HYDRAULIC TIMESTEP  1:00:00
 QUALITY TIMESTEP    0:05:00
 REPORT TIMESTEP     1:00:00
 REPORT START        0:00:00
 PATTERN TIMESTEP    1:00:00
 PATTERN START       0:00:00
 RULE TIMESTEP       0:06:00
 START CLOCKTIME     0:00:00
 STATISTIC           NONE

[OPTIONS]
 UNITS               LPS
 PRESSURE            METERS
 HEADLOSS            D-W
 UNBALANCED          CONTINUE 10
 QUALITY             NONE
 DEMAND MULTIPLIER   1.0000
 EMITTER EXPONENT    0.5000
 VISCOSITY           1.000000
 DIFFUSIVITY         1.000000
 SPECIFIC GRAVITY    1.000000
 TRIALS              40
 ACCURACY            0.00100000
 TOLERANCE           0.01000000
 CHECKFREQ           2
 MAXCHECK            10
 DAMPLIMIT           0.00000000

[REPORT]
 PAGESIZE            0
 STATUS              NO
 SUMMARY             YES
 ENERGY              NO
 NODES               ALL
 LINKS               ALL
 Elevation           PRECISION 2
 Demand              PRECISION 2
 Head                PRECISION 2
 Pressure            PRECISION 2
 Quality             NO
 Length              PRECISION 2
 Diameter            PRECISION 2
 Flow                PRECISION 2
 Velocity            PRECISION 2
 Headloss            PRECISION 2
 Quality             NO
 State               NO
 Setting             NO
 Reaction            NO
[TAGS]

[RULES]


[COORDINATES]
;Node            	X-Coord         	Y-Coord
 2               	8475.61         	7572.06         
 3               	7245.01         	8148.56         
 4               	6225.06         	8669.62         
 5               	5216.19         	8691.80         
 6               	4329.27         	8691.80         
 7               	3353.66         	8691.80         
 8               	1513.30         	8702.88         
 9               	726.16          	9356.98         
 10              	1491.13         	7538.80         
 11              	1491.13         	6407.98         
 12              	3375.83         	6385.81         
 13              	5216.19         	6385.81         
 14              	6213.97         	6374.72         
 15              	7222.84         	6396.90         
 16              	3342.57         	7538.80         
 17              	5216.19         	7538.80         
 18              	1513.30         	4933.48         
 19              	1491.13         	3913.53         
 1               	9229.49         	6696.23         

[VERTICES]
;Link            	X-Coord         	Y-Coord

[LABELS]
;X-Coord           Y-Coord          Label & Anchor Node
 7300.44          6374.72          "15"                 
 8553.22          7760.53          "2"                 
 7322.62          8359.20          "3"                 
 6347.01          8802.66          "4"                 
 6213.97          6286.03          "14"                 
 5227.27          6308.20          "13"                 
 3431.26          6308.20          "12"                 
 3431.26          7461.20          "16"                 
 4983.37          7815.96          "17"                 
 5160.75          8935.70          "5"                 
 4296.01          8924.61          "6"                 
 3342.57          8869.18          "7"                 
 1579.82          8869.18          "8"                 
 925.72           9445.68          "9"                 
 1579.82          7771.62          "10"                 
 1568.74          6651.88          "11"                 
 1624.17          5033.26          "18"                 
 1624.17          3980.04          "19"                 
 9451.22          6696.23          "1"                 

[BACKDROP]
 DIMENSIONS     	0.00            	0.00            	10000.00        	10000.00        
 UNITS          	None
 FILE           	
 OFFSET         	0.00            	0.00            


[END]